OEDI/base/IEEE390_PV.dss
clear
set defaultbasefrequency=60.0
new Circuit.source phases=3 bus1=p1 basekv=230.000 pu=1.05000 angle=0.00000 r0=0.08381 x0=0.25142 r1=0.06415 x1=0.25660
set earthmodel=carson

new Linecode.sec6 nphases=3 units=mi rmatrix=[0.0560320 | 0.0214300 0.0546940 | 0.0221200 0.0214300 0.0560320 ] xmatrix=[0.0850510 | 0.0447810 0.0958580 | 0.0322690 0.0447810 0.0850510 ] cmatrix=[204.520 | -72.4734 205.171 | -24.7286 -72.4734 204.520 ]
new Linecode.sec5 nphases=3 units=mi rmatrix=[0.0672380 | 0.0257160 0.0656330 | 0.0265440 0.0257160 0.0672380 ] xmatrix=[0.102061 | 0.0537370 0.115029 | 0.0387230 0.0537370 0.102061 ] cmatrix=[170.433 | -60.3945 170.976 | -20.6072 -60.3945 170.433 ]
new Linecode.pri1 nphases=3 units=mi rmatrix=[0.130180 | -4.14314e-06 0.130177 | -8.11898e-06 -4.14314e-06 0.130180 ] xmatrix=[0.0668195 | -0.000224891 0.0669850 | -4.28350e-05 -0.000224891 0.0668195 ] cmatrix=[566.228 | 0.00000 566.228 | 0.00000 0.00000 566.228 ]
new Linecode.trans1 nphases=3 units=mi rmatrix=[0.145190 | 0.0925205 0.145190 | 0.0925186 0.0925205 0.145190 ] xmatrix=[1.41011 | 0.695545 1.41011 | 0.611437 0.695545 1.41011 ] cmatrix=[12.4232 | -3.11310 12.9890 | -1.63202 -3.11310 12.4232 ]

new Load.1 phases=1 bus1=s193.1 conn=w kw=364.070 kvar=91.245 numcust=1 kv=0.277 model=1
new Load.2 phases=1 bus1=s193.2 conn=w kw=413.730 kvar=150.164 numcust=1 kv=0.277 model=1
new Load.3 phases=1 bus1=s193.3 conn=w kw=360.050 kvar=164.044 numcust=1 kv=0.277 model=1
new Load.4 phases=1 bus1=s193.1.2 conn=d kw=96.800 kvar=67.567 numcust=1 kv=0.480 model=1
new Load.5 phases=1 bus1=s193.2.3 conn=d kw=132.060 kvar=99.045 numcust=1 kv=0.480 model=1
new Load.6 phases=1 bus1=s193.3.1 conn=d kw=95.210 kvar=76.385 numcust=1 kv=0.480 model=1
new Load.7 phases=1 bus1=s198.1 conn=w kw=90.830 kvar=22.764 numcust=1 kv=0.277 model=1
new Load.8 phases=1 bus1=s198.2 conn=w kw=97.250 kvar=19.747 numcust=1 kv=0.277 model=1
new Load.9 phases=1 bus1=s198.3 conn=w kw=100.790 kvar=39.835 numcust=1 kv=0.277 model=1
new Load.600 phases=1 bus1=s139.3.1 conn=d kw=35.470 kvar=27.528 numcust=1 kv=0.208 model=1
new Load.601 phases=1 bus1=s140.1 conn=w kw=14.270 kvar=2.033 numcust=1 kv=0.120 model=1
new Load.602 phases=1 bus1=s140.2 conn=w kw=12.090 kvar=5.150 numcust=1 kv=0.120 model=1
new Load.603 phases=1 bus1=s140.3 conn=w kw=13.660 kvar=2.774 numcust=1 kv=0.120 model=1
new Load.604 phases=1 bus1=s140.1.2 conn=d kw=29.390 kvar=20.514 numcust=1 kv=0.208 model=1
new Load.605 phases=1 bus1=s140.2.3 conn=d kw=33.660 kvar=21.742 numcust=1 kv=0.208 model=1
new Load.606 phases=1 bus1=s140.3.1 conn=d kw=29.880 kvar=20.856 numcust=1 kv=0.208 model=1
new Load.607 phases=1 bus1=s142.1 conn=w kw=13.220 kvar=6.023 numcust=1 kv=0.120 model=1
new Load.608 phases=1 bus1=s142.2 conn=w kw=12.400 kvar=5.282 numcust=1 kv=0.120 model=1
new Load.609 phases=1 bus1=s142.3 conn=w kw=12.260 kvar=4.030 numcust=1 kv=0.120 model=1
new Load.610 phases=1 bus1=s142.1.2 conn=d kw=36.880 kvar=30.560 numcust=1 kv=0.208 model=1
new Load.611 phases=1 bus1=s142.2.3 conn=d kw=31.620 kvar=20.425 numcust=1 kv=0.208 model=1
new Load.612 phases=1 bus1=s142.3.1 conn=d kw=36.310 kvar=31.051 numcust=1 kv=0.208 model=1
new Load.613 phases=1 bus1=s143.1 conn=w kw=12.610 kvar=4.984 numcust=1 kv=0.120 model=1
new Load.614 phases=1 bus1=s143.2 conn=w kw=15.460 kvar=3.875 numcust=1 kv=0.120 model=1
new Load.615 phases=1 bus1=s143.3 conn=w kw=15.220 kvar=5.524 numcust=1 kv=0.120 model=1
new Load.616 phases=1 bus1=s143.1.2 conn=d kw=30.620 kvar=24.566 numcust=1 kv=0.208 model=1
new Load.617 phases=1 bus1=s143.2.3 conn=d kw=38.280 kvar=26.720 numcust=1 kv=0.208 model=1
new Load.618 phases=1 bus1=s143.3.1 conn=d kw=29.340 kvar=19.717 numcust=1 kv=0.208 model=1
new Load.619 phases=1 bus1=s144.1 conn=w kw=12.170 kvar=3.550 numcust=1 kv=0.120 model=1
new Load.620 phases=1 bus1=s144.2 conn=w kw=15.530 kvar=6.138 numcust=1 kv=0.120 model=1
new Load.500 phases=1 bus1=s120.2 conn=w kw=36.760 kvar=16.748 numcust=1 kv=0.120 model=1
new Load.621 phases=1 bus1=s144.3 conn=w kw=14.780 kvar=3.001 numcust=1 kv=0.120 model=1
new Load.501 phases=1 bus1=s120.3 conn=w kw=38.020 kvar=17.322 numcust=1 kv=0.120 model=1
new Load.622 phases=1 bus1=s144.1.2 conn=d kw=28.760 kvar=23.074 numcust=1 kv=0.208 model=1
new Load.502 phases=1 bus1=s120.1.2 conn=d kw=92.720 kvar=67.128 numcust=1 kv=0.208 model=1
new Load.623 phases=1 bus1=s144.2.3 conn=d kw=37.850 kvar=27.403 numcust=1 kv=0.208 model=1
new Load.503 phases=1 bus1=s120.2.3 conn=d kw=93.460 kvar=72.533 numcust=1 kv=0.208 model=1
new Load.624 phases=1 bus1=s144.3.1 conn=d kw=29.310 kvar=20.459 numcust=1 kv=0.208 model=1
new Load.504 phases=1 bus1=s120.3.1 conn=d kw=93.330 kvar=67.570 numcust=1 kv=0.208 model=1
new Load.505 phases=1 bus1=s121.1 conn=w kw=35.990 kvar=5.128 numcust=1 kv=0.120 model=1
new Load.506 phases=1 bus1=s121.2 conn=w kw=33.870 kvar=14.429 numcust=1 kv=0.120 model=1
new Load.507 phases=1 bus1=s121.3 conn=w kw=38.450 kvar=13.955 numcust=1 kv=0.120 model=1
new Load.508 phases=1 bus1=s121.1.2 conn=d kw=108.000 kvar=78.191 numcust=1 kv=0.208 model=1
new Load.509 phases=1 bus1=s121.2.3 conn=d kw=87.530 kvar=67.931 numcust=1 kv=0.208 model=1
new Load.510 phases=1 bus1=s121.3.1 conn=d kw=98.290 kvar=63.489 numcust=1 kv=0.208 model=1
new Load.511 phases=1 bus1=s122.1 conn=w kw=45.210 kvar=20.598 numcust=1 kv=0.120 model=1
new Load.512 phases=1 bus1=s122.2 conn=w kw=44.470 kvar=9.030 numcust=1 kv=0.120 model=1
new Load.513 phases=1 bus1=s122.3 conn=w kw=43.610 kvar=10.930 numcust=1 kv=0.120 model=1
new Load.514 phases=1 bus1=s122.1.2 conn=d kw=113.680 kvar=73.430 numcust=1 kv=0.208 model=1
new Load.515 phases=1 bus1=s122.2.3 conn=d kw=92.630 kvar=69.472 numcust=1 kv=0.208 model=1
new Load.516 phases=1 bus1=s122.3.1 conn=d kw=104.750 kvar=89.578 numcust=1 kv=0.208 model=1
new Load.517 phases=1 bus1=s123.1 conn=w kw=13.310 kvar=4.375 numcust=1 kv=0.120 model=1
new Load.518 phases=1 bus1=s123.2 conn=w kw=13.050 kvar=5.158 numcust=1 kv=0.120 model=1
new Load.519 phases=1 bus1=s123.3 conn=w kw=13.710 kvar=3.999 numcust=1 kv=0.120 model=1
new Load.520 phases=1 bus1=s123.1.2 conn=d kw=33.850 kvar=23.627 numcust=1 kv=0.208 model=1
new Load.400 phases=1 bus1=s88.1.2 conn=d kw=130.130 kvar=104.401 numcust=1 kv=0.208 model=1
new Load.521 phases=1 bus1=s123.2.3 conn=d kw=37.880 kvar=27.425 numcust=1 kv=0.208 model=1
new Load.401 phases=1 bus1=s88.2.3 conn=d kw=144.170 kvar=100.631 numcust=1 kv=0.208 model=1
new Load.522 phases=1 bus1=s123.3.1 conn=d kw=37.590 kvar=31.148 numcust=1 kv=0.208 model=1
new Load.402 phases=1 bus1=s88.3.1 conn=d kw=140.750 kvar=98.244 numcust=1 kv=0.208 model=1
new Load.523 phases=1 bus1=s124.1 conn=w kw=16.690 kvar=4.868 numcust=1 kv=0.120 model=1
new Load.403 phases=1 bus1=s89.1 conn=w kw=38.000 kvar=9.524 numcust=1 kv=0.120 model=1
new Load.524 phases=1 bus1=s124.2 conn=w kw=12.230 kvar=1.743 numcust=1 kv=0.120 model=1
new Load.404 phases=1 bus1=s89.2 conn=w kw=49.550 kvar=7.060 numcust=1 kv=0.120 model=1
new Load.525 phases=1 bus1=s124.3 conn=w kw=16.190 kvar=3.288 numcust=1 kv=0.120 model=1
new Load.405 phases=1 bus1=s89.3 conn=w kw=48.750 kvar=16.023 numcust=1 kv=0.120 model=1
new Load.526 phases=1 bus1=s124.1.2 conn=d kw=34.550 kvar=26.814 numcust=1 kv=0.208 model=1
new Load.406 phases=1 bus1=s89.1.2 conn=d kw=121.250 kvar=81.480 numcust=1 kv=0.208 model=1
new Load.527 phases=1 bus1=s124.2.3 conn=d kw=29.380 kvar=24.345 numcust=1 kv=0.208 model=1
new Load.407 phases=1 bus1=s89.2.3 conn=d kw=107.770 kvar=92.161 numcust=1 kv=0.208 model=1
new Load.528 phases=1 bus1=s124.3.1 conn=d kw=29.050 kvar=21.788 numcust=1 kv=0.208 model=1
new Load.408 phases=1 bus1=s89.3.1 conn=d kw=125.350 kvar=84.236 numcust=1 kv=0.208 model=1
new Load.529 phases=1 bus1=s125.1 conn=w kw=12.400 kvar=5.650 numcust=1 kv=0.120 model=1
new Load.409 phases=1 bus1=s92.1 conn=w kw=53.370 kvar=17.542 numcust=1 kv=0.120 model=1
new Load.530 phases=1 bus1=s125.2 conn=w kw=12.870 kvar=5.864 numcust=1 kv=0.120 model=1
new Load.410 phases=1 bus1=s92.2 conn=w kw=49.150 kvar=12.318 numcust=1 kv=0.120 model=1
new Load.531 phases=1 bus1=s125.3 conn=w kw=14.350 kvar=2.045 numcust=1 kv=0.120 model=1
new Load.411 phases=1 bus1=s92.3 conn=w kw=46.060 kvar=18.204 numcust=1 kv=0.120 model=1
new Load.532 phases=1 bus1=s125.1.2 conn=d kw=31.180 kvar=25.837 numcust=1 kv=0.208 model=1
new Load.412 phases=1 bus1=s92.1.2 conn=d kw=114.190 kvar=94.621 numcust=1 kv=0.208 model=1
new Load.533 phases=1 bus1=s125.2.3 conn=d kw=29.220 kvar=21.155 numcust=1 kv=0.208 model=1
new Load.413 phases=1 bus1=s92.2.3 conn=d kw=116.180 kvar=84.113 numcust=1 kv=0.208 model=1
new Load.534 phases=1 bus1=s125.3.1 conn=d kw=29.420 kvar=23.603 numcust=1 kv=0.208 model=1
new Load.414 phases=1 bus1=s92.3.1 conn=d kw=111.200 kvar=77.618 numcust=1 kv=0.208 model=1
new Load.535 phases=1 bus1=s127.1 conn=w kw=17.740 kvar=7.557 numcust=1 kv=0.120 model=1
new Load.415 phases=1 bus1=s93.1 conn=w kw=46.310 kvar=13.507 numcust=1 kv=0.120 model=1
new Load.536 phases=1 bus1=s127.2 conn=w kw=12.200 kvar=5.197 numcust=1 kv=0.120 model=1
new Load.416 phases=1 bus1=s93.2 conn=w kw=54.300 kvar=7.737 numcust=1 kv=0.120 model=1
new Load.537 phases=1 bus1=s127.3 conn=w kw=14.880 kvar=6.780 numcust=1 kv=0.120 model=1
new Load.417 phases=1 bus1=s93.3 conn=w kw=47.130 kvar=9.570 numcust=1 kv=0.120 model=1
new Load.538 phases=1 bus1=s127.1.2 conn=d kw=33.060 kvar=28.272 numcust=1 kv=0.208 model=1
new Load.418 phases=1 bus1=s93.1.2 conn=d kw=108.930 kvar=76.034 numcust=1 kv=0.208 model=1
new Load.539 phases=1 bus1=s127.2.3 conn=d kw=35.590 kvar=29.491 numcust=1 kv=0.208 model=1
new Load.419 phases=1 bus1=s93.2.3 conn=d kw=107.460 kvar=72.214 numcust=1 kv=0.208 model=1
new Load.540 phases=1 bus1=s127.3.1 conn=d kw=28.840 kvar=20.130 numcust=1 kv=0.208 model=1
new Load.420 phases=1 bus1=s93.3.1 conn=d kw=105.160 kvar=73.402 numcust=1 kv=0.208 model=1
new Load.541 phases=1 bus1=s128.1 conn=w kw=13.530 kvar=4.447 numcust=1 kv=0.120 model=1
new Load.300 phases=1 bus1=s61.3.1 conn=d kw=70.380 kvar=49.126 numcust=1 kv=0.208 model=1
new Load.421 phases=1 bus1=s94.1 conn=w kw=46.850 kvar=6.676 numcust=1 kv=0.120 model=1
new Load.542 phases=1 bus1=s128.2 conn=w kw=13.650 kvar=3.981 numcust=1 kv=0.120 model=1
new Load.301 phases=1 bus1=s62.1 conn=w kw=12.680 kvar=4.602 numcust=1 kv=0.120 model=1
new Load.422 phases=1 bus1=s94.2 conn=w kw=47.530 kvar=13.863 numcust=1 kv=0.120 model=1
new Load.543 phases=1 bus1=s128.3 conn=w kw=15.180 kvar=3.804 numcust=1 kv=0.120 model=1
new Load.302 phases=1 bus1=s62.2 conn=w kw=13.220 kvar=4.798 numcust=1 kv=0.120 model=1
new Load.423 phases=1 bus1=s94.3 conn=w kw=40.730 kvar=16.098 numcust=1 kv=0.120 model=1
new Load.544 phases=1 bus1=s128.1.2 conn=d kw=32.540 kvar=22.713 numcust=1 kv=0.208 model=1
new Load.303 phases=1 bus1=s62.3 conn=w kw=11.860 kvar=5.404 numcust=1 kv=0.120 model=1
new Load.424 phases=1 bus1=s94.1.2 conn=d kw=116.000 kvar=93.065 numcust=1 kv=0.208 model=1
new Load.545 phases=1 bus1=s128.2.3 conn=d kw=27.980 kvar=20.257 numcust=1 kv=0.208 model=1
new Load.304 phases=1 bus1=s62.1.2 conn=d kw=32.280 kvar=22.532 numcust=1 kv=0.208 model=1
new Load.425 phases=1 bus1=s94.2.3 conn=d kw=112.350 kvar=75.500 numcust=1 kv=0.208 model=1
new Load.546 phases=1 bus1=s128.3.1 conn=d kw=34.210 kvar=27.446 numcust=1 kv=0.208 model=1
new Load.305 phases=1 bus1=s62.2.3 conn=d kw=34.950 kvar=23.487 numcust=1 kv=0.208 model=1
new Load.426 phases=1 bus1=s94.3.1 conn=d kw=105.060 kvar=87.056 numcust=1 kv=0.208 model=1
new Load.547 phases=1 bus1=s129.1 conn=w kw=12.060 kvar=4.766 numcust=1 kv=0.120 model=1
new Load.306 phases=1 bus1=s62.3.1 conn=d kw=29.750 kvar=23.089 numcust=1 kv=0.208 model=1
new Load.427 phases=1 bus1=s97.1 conn=w kw=29.940 kvar=11.833 numcust=1 kv=0.120 model=1
new Load.548 phases=1 bus1=s129.2 conn=w kw=14.890 kvar=2.122 numcust=1 kv=0.120 model=1
new Load.307 phases=1 bus1=s63.1 conn=w kw=13.060 kvar=4.740 numcust=1 kv=0.120 model=1
new Load.428 phases=1 bus1=s97.2 conn=w kw=34.540 kvar=7.014 numcust=1 kv=0.120 model=1
new Load.549 phases=1 bus1=s129.3 conn=w kw=14.960 kvar=4.917 numcust=1 kv=0.120 model=1
new Load.308 phases=1 bus1=s63.2 conn=w kw=11.520 kvar=4.907 numcust=1 kv=0.120 model=1
new Load.429 phases=1 bus1=s97.3 conn=w kw=27.650 kvar=0.000 numcust=1 kv=0.120 model=1
new Load.309 phases=1 bus1=s63.3 conn=w kw=15.280 kvar=6.962 numcust=1 kv=0.120 model=1
new Load.550 phases=1 bus1=s129.1.2 conn=d kw=28.740 kvar=21.555 numcust=1 kv=0.208 model=1
new Load.430 phases=1 bus1=s97.1.2 conn=d kw=88.650 kvar=66.487 numcust=1 kv=0.208 model=1
new Load.551 phases=1 bus1=s129.2.3 conn=d kw=36.800 kvar=27.600 numcust=1 kv=0.208 model=1
new Load.310 phases=1 bus1=s63.1.2 conn=d kw=35.060 kvar=29.052 numcust=1 kv=0.208 model=1
new Load.431 phases=1 bus1=s97.2.3 conn=d kw=78.560 kvar=67.182 numcust=1 kv=0.208 model=1
new Load.552 phases=1 bus1=s129.3.1 conn=d kw=28.390 kvar=23.525 numcust=1 kv=0.208 model=1
new Load.311 phases=1 bus1=s63.2.3 conn=d kw=31.530 kvar=20.366 numcust=1 kv=0.208 model=1
new Load.432 phases=1 bus1=s97.3.1 conn=d kw=76.200 kvar=63.141 numcust=1 kv=0.208 model=1
new Load.553 phases=1 bus1=s130.1 conn=w kw=15.360 kvar=6.071 numcust=1 kv=0.120 model=1
new Load.312 phases=1 bus1=s63.3.1 conn=d kw=32.360 kvar=22.587 numcust=1 kv=0.208 model=1
new Load.433 phases=1 bus1=s98.1 conn=w kw=40.470 kvar=13.302 numcust=1 kv=0.120 model=1
new Load.554 phases=1 bus1=s130.2 conn=w kw=14.860 kvar=2.117 numcust=1 kv=0.120 model=1
new Load.313 phases=1 bus1=s64.1 conn=w kw=54.280 kvar=23.123 numcust=1 kv=0.120 model=1
new Load.434 phases=1 bus1=s98.2 conn=w kw=36.750 kvar=12.079 numcust=1 kv=0.120 model=1
new Load.555 phases=1 bus1=s130.3 conn=w kw=11.960 kvar=3.488 numcust=1 kv=0.120 model=1
new Load.314 phases=1 bus1=s64.2 conn=w kw=48.220 kvar=9.791 numcust=1 kv=0.120 model=1
new Load.435 phases=1 bus1=s98.3 conn=w kw=38.090 kvar=7.735 numcust=1 kv=0.120 model=1
new Load.556 phases=1 bus1=s130.1.2 conn=d kw=33.060 kvar=28.272 numcust=1 kv=0.208 model=1
new Load.315 phases=1 bus1=s64.3 conn=w kw=43.590 kvar=8.851 numcust=1 kv=0.120 model=1
new Load.436 phases=1 bus1=s98.1.2 conn=d kw=87.210 kvar=67.682 numcust=1 kv=0.208 model=1
new Load.557 phases=1 bus1=s130.2.3 conn=d kw=36.160 kvar=28.063 numcust=1 kv=0.208 model=1
new Load.316 phases=1 bus1=s64.1.2 conn=d kw=125.890 kvar=91.143 numcust=1 kv=0.208 model=1
new Load.437 phases=1 bus1=s98.2.3 conn=d kw=85.780 kvar=68.820 numcust=1 kv=0.208 model=1
new Load.558 phases=1 bus1=s130.3.1 conn=d kw=37.310 kvar=26.043 numcust=1 kv=0.208 model=1
new Load.317 phases=1 bus1=s64.2.3 conn=d kw=120.310 kvar=93.371 numcust=1 kv=0.208 model=1
new Load.438 phases=1 bus1=s98.3.1 conn=d kw=91.100 kvar=70.701 numcust=1 kv=0.208 model=1
new Load.559 phases=1 bus1=s132.1 conn=w kw=17.540 kvar=2.499 numcust=1 kv=0.120 model=1
new Load.318 phases=1 bus1=s64.3.1 conn=d kw=122.470 kvar=85.485 numcust=1 kv=0.208 model=1
new Load.439 phases=1 bus1=s99.1 conn=w kw=39.980 kvar=8.118 numcust=1 kv=0.120 model=1
new Load.319 phases=1 bus1=s65.1 conn=w kw=45.340 kvar=14.903 numcust=1 kv=0.120 model=1
new Load.560 phases=1 bus1=s132.2 conn=w kw=11.780 kvar=2.392 numcust=1 kv=0.120 model=1
new Load.440 phases=1 bus1=s99.2 conn=w kw=35.850 kvar=8.985 numcust=1 kv=0.120 model=1
new Load.561 phases=1 bus1=s132.3 conn=w kw=11.770 kvar=4.652 numcust=1 kv=0.120 model=1
new Load.320 phases=1 bus1=s65.2 conn=w kw=48.490 kvar=6.909 numcust=1 kv=0.120 model=1
new Load.441 phases=1 bus1=s99.3 conn=w kw=29.330 kvar=12.495 numcust=1 kv=0.120 model=1
new Load.562 phases=1 bus1=s132.1.2 conn=d kw=31.170 kvar=25.828 numcust=1 kv=0.208 model=1
new Load.200 phases=1 bus1=s37.2 conn=w kw=12.710 kvar=3.185 numcust=1 kv=0.120 model=1
new Load.321 phases=1 bus1=s65.3 conn=w kw=54.020 kvar=7.697 numcust=1 kv=0.120 model=1
new Load.442 phases=1 bus1=s99.1.2 conn=d kw=76.510 kvar=65.428 numcust=1 kv=0.208 model=1
new Load.563 phases=1 bus1=s132.2.3 conn=d kw=31.460 kvar=21.959 numcust=1 kv=0.208 model=1
new Load.201 phases=1 bus1=s37.3 conn=w kw=14.390 kvar=2.050 numcust=1 kv=0.120 model=1
new Load.322 phases=1 bus1=s65.1.2 conn=d kw=105.360 kvar=90.100 numcust=1 kv=0.208 model=1
new Load.443 phases=1 bus1=s99.2.3 conn=d kw=80.540 kvar=54.123 numcust=1 kv=0.208 model=1
new Load.564 phases=1 bus1=s132.3.1 conn=d kw=38.320 kvar=25.751 numcust=1 kv=0.208 model=1
new Load.202 phases=1 bus1=s37.1.2 conn=d kw=37.320 kvar=27.019 numcust=1 kv=0.208 model=1
new Load.323 phases=1 bus1=s65.2.3 conn=d kw=122.000 kvar=91.500 numcust=1 kv=0.208 model=1
new Load.444 phases=1 bus1=s99.3.1 conn=d kw=91.370 kvar=59.019 numcust=1 kv=0.208 model=1
new Load.565 phases=1 bus1=s133.1 conn=w kw=13.140 kvar=4.769 numcust=1 kv=0.120 model=1
new Load.203 phases=1 bus1=s37.2.3 conn=d kw=36.930 kvar=24.817 numcust=1 kv=0.208 model=1
new Load.324 phases=1 bus1=s65.3.1 conn=d kw=124.940 kvar=90.455 numcust=1 kv=0.208 model=1
new Load.445 phases=1 bus1=s102.1 conn=w kw=25.620 kvar=10.126 numcust=1 kv=0.120 model=1
new Load.566 phases=1 bus1=s133.2 conn=w kw=13.400 kvar=3.908 numcust=1 kv=0.120 model=1
new Load.204 phases=1 bus1=s37.3.1 conn=d kw=34.430 kvar=28.530 numcust=1 kv=0.208 model=1
new Load.325 phases=1 bus1=s66.1 conn=w kw=42.670 kvar=12.445 numcust=1 kv=0.120 model=1
new Load.446 phases=1 bus1=s102.2 conn=w kw=30.270 kvar=12.895 numcust=1 kv=0.120 model=1
new Load.567 phases=1 bus1=s133.3 conn=w kw=14.450 kvar=5.711 numcust=1 kv=0.120 model=1
new Load.205 phases=1 bus1=s38.1 conn=w kw=50.330 kvar=21.440 numcust=1 kv=0.120 model=1
new Load.326 phases=1 bus1=s66.2 conn=w kw=44.750 kvar=9.087 numcust=1 kv=0.120 model=1
new Load.447 phases=1 bus1=s102.3 conn=w kw=28.270 kvar=7.085 numcust=1 kv=0.120 model=1
new Load.568 phases=1 bus1=s133.1.2 conn=d kw=36.680 kvar=30.394 numcust=1 kv=0.208 model=1
new Load.206 phases=1 bus1=s38.2 conn=w kw=55.550 kvar=21.955 numcust=1 kv=0.120 model=1
new Load.327 phases=1 bus1=s66.3 conn=w kw=53.420 kvar=15.581 numcust=1 kv=0.120 model=1
new Load.448 phases=1 bus1=s102.1.2 conn=d kw=70.130 kvar=59.973 numcust=1 kv=0.208 model=1
new Load.569 phases=1 bus1=s133.2.3 conn=d kw=30.050 kvar=21.756 numcust=1 kv=0.208 model=1
new Load.207 phases=1 bus1=s38.3 conn=w kw=51.740 kvar=10.506 numcust=1 kv=0.120 model=1
new Load.328 phases=1 bus1=s66.1.2 conn=d kw=125.460 kvar=103.960 numcust=1 kv=0.208 model=1
new Load.449 phases=1 bus1=s102.2.3 conn=d kw=65.970 kvar=46.047 numcust=1 kv=0.208 model=1
new Load.208 phases=1 bus1=s38.1.2 conn=d kw=111.430 kvar=86.479 numcust=1 kv=0.208 model=1
new Load.329 phases=1 bus1=s66.2.3 conn=d kw=126.260 kvar=97.988 numcust=1 kv=0.208 model=1
new Load.209 phases=1 bus1=s38.2.3 conn=d kw=126.130 kvar=91.317 numcust=1 kv=0.208 model=1
new Load.570 phases=1 bus1=s133.3.1 conn=d kw=28.290 kvar=21.218 numcust=1 kv=0.208 model=1
new Load.450 phases=1 bus1=s102.3.1 conn=d kw=63.650 kvar=46.082 numcust=1 kv=0.208 model=1
new Load.571 phases=1 bus1=s134.1 conn=w kw=12.340 kvar=1.758 numcust=1 kv=0.120 model=1
new Load.330 phases=1 bus1=s66.3.1 conn=d kw=115.650 kvar=77.717 numcust=1 kv=0.208 model=1
new Load.451 phases=1 bus1=s103.1 conn=w kw=11.710 kvar=4.988 numcust=1 kv=0.120 model=1
new Load.572 phases=1 bus1=s134.2 conn=w kw=15.770 kvar=5.183 numcust=1 kv=0.120 model=1
...

new Line.77_sw phases=3 bus1=s234.1.2.3 bus2=s232.1.2.3 switch=y r1=1e-4 r0=1e-4 x1=0 x0=0 c1=0 c0=0 // CIM LoadBreakSwitch
~ normamps=400.00
  close Line.77_sw 1
new Line.31_sw phases=3 bus1=s168.1.2.3 bus2=s69.1.2.3 switch=y r1=1e-4 r0=1e-4 x1=0 x0=0 c1=0 c0=0 // CIM LoadBreakSwitch
~ normamps=400.00
  close Line.31_sw 1
new Line.58_sw phases=3 bus1=s186.1.2.3 bus2=s117.1.2.3 switch=y r1=1e-4 r0=1e-4 x1=0 x0=0 c1=0 c0=0 // CIM LoadBreakSwitch
~ normamps=400.00
  close Line.58_sw 1
new Line.29_sw phases=3 bus1=s164.1.2.3 bus2=s68.1.2.3 switch=y r1=1e-4 r0=1e-4 x1=0 x0=0 c1=0 c0=0 // CIM LoadBreakSwitch
~ normamps=400.00
  close Line.29_sw 1
new Line.54_sw phases=3 bus1=s178.1.2.3 bus2=s115.1.2.3 switch=y r1=1e-4 r0=1e-4 x1=0 x0=0 c1=0 c0=0 // CIM LoadBreakSwitch
~ normamps=400.00
  close Line.54_sw 1
new Line.12_sw phases=3 bus1=p134.1.2.3 bus2=p135.1.2.3 switch=y r1=1e-4 r0=1e-4 x1=0 x0=0 c1=0 c0=0 // CIM LoadBreakSwitch
~ normamps=400.00
  close Line.12_sw 1
new Line.48_sw phases=3 bus1=s181.1.2.3 bus2=s91.1.2.3 switch=y r1=1e-4 r0=1e-4 x1=0 x0=0 c1=0 c0=0 // CIM LoadBreakSwitch
~ normamps=400.00
  close Line.48_sw 1
new Line.2_sw phases=3 bus1=p5.1.2.3 bus2=p6.1.2.3 switch=y r1=1e-4 r0=1e-4 x1=0 x0=0 c1=0 c0=0 // CIM LoadBreakSwitch
~ normamps=400.00
  close Line.2_sw 1
new Line.35_sw phases=3 bus1=s176.1.2.3 bus2=s71.1.2.3 switch=y r1=1e-4 r0=1e-4 x1=0 x0=0 c1=0 c0=0 // CIM LoadBreakSwitch
~ normamps=400.00
  close Line.35_sw 1
new Line.50_sw phases=3 bus1=s185.1.2.3 bus2=s96.1.2.3 switch=y r1=1e-4 r0=1e-4 x1=0 x0=0 c1=0 c0=0 // CIM LoadBreakSwitch
~ normamps=400.00
  close Line.50_sw 1
new Line.41_sw phases=3 bus1=s171.1.2.3 bus2=s95.1.2.3 switch=y r1=1e-4 r0=1e-4 x1=0 x0=0 c1=0 c0=0 // CIM LoadBreakSwitch
~ normamps=400.00
  close Line.41_sw 1
new Line.68_sw phases=3 bus1=s214.1.2.3 bus2=s211.1.2.3 switch=y r1=1e-4 r0=1e-4 x1=0 x0=0 c1=0 c0=0 // CIM LoadBreakSwitch
~ normamps=400.00
  close Line.68_sw 1
new Line.15_sw phases=3 bus1=s152.1.2.3 bus2=s28.1.2.3 switch=y r1=1e-4 r0=1e-4 x1=0 x0=0 c1=0 c0=0 // CIM LoadBreakSwitch
~ normamps=400.00
  close Line.15_sw 1
new Line.45_sw phases=3 bus1=s180.1.2.3 bus2=s109.1.2.3 switch=y r1=1e-4 r0=1e-4 x1=0 x0=0 c1=0 c0=0 // CIM LoadBreakSwitch
~ normamps=400.00
  close Line.45_sw 1
new Line.6_sw phases=3 bus1=p27.1.2.3 bus2=p28.1.2.3 switch=y r1=1e-4 r0=1e-4 x1=0 x0=0 c1=0 c0=0 // CIM LoadBreakSwitch
~ normamps=400.00
  close Line.6_sw 1
new Line.70_sw phases=3 bus1=s216.1.2.3 bus2=s213.1.2.3 switch=y r1=1e-4 r0=1e-4 x1=0 x0=0 c1=0 c0=0 // CIM LoadBreakSwitch
~ normamps=400.00
  close Line.70_sw 1
new Line.19_sw phases=3 bus1=s160.1.2.3 bus2=s30.1.2.3 switch=y r1=1e-4 r0=1e-4 x1=0 x0=0 c1=0 c0=0 // CIM LoadBreakSwitch
~ normamps=400.00
  close Line.19_sw 1
new Line.38_sw phases=3 bus1=s162.1.2.3 bus2=s74.1.2.3 switch=y r1=1e-4 r0=1e-4 x1=0 x0=0 c1=0 c0=0 // CIM LoadBreakSwitch
~ normamps=400.00
  close Line.38_sw 1
new Line.64_sw phases=3 bus1=s202.1.2.3 bus2=s200.1.2.3 switch=y r1=1e-4 r0=1e-4 x1=0 x0=0 c1=0 c0=0 // CIM LoadBreakSwitch
~ normamps=400.00
  close Line.64_sw 1
new Line.60_sw phases=3 bus1=s190.1.2.3 bus2=s118.1.2.3 switch=y r1=1e-4 r0=1e-4 x1=0 x0=0 c1=0 c0=0 // CIM LoadBreakSwitch
~ normamps=400.00
  close Line.60_sw 1
new Line.22_sw phases=3 bus1=s146.1.2.3 bus2=s33.1.2.3 switch=y r1=1e-4 r0=1e-4 x1=0 x0=0 c1=0 c0=0 // CIM LoadBreakSwitch
~ normamps=400.00
  close Line.22_sw 1
new Line.32_sw phases=3 bus1=s165.1.2.3 bus2=s50.1.2.3 switch=y r1=1e-4 r0=1e-4 x1=0 x0=0 c1=0 c0=0 // CIM LoadBreakSwitch
~ normamps=400.00
  close Line.32_sw 1
new Line.78_sw phases=3 bus1=s235.1.2.3 bus2=s233.1.2.3 switch=y r1=1e-4 r0=1e-4 x1=0 x0=0 c1=0 c0=0 // CIM LoadBreakSwitch
~ normamps=400.00
  close Line.78_sw 1
new Line.57_sw phases=3 bus1=s187.1.2.3 bus2=s136.1.2.3 switch=y r1=1e-4 r0=1e-4 x1=0 x0=0 c1=0 c0=0 // CIM LoadBreakSwitch
~ normamps=400.00
  close Line.57_sw 1
new Line.1_sw phases=3 bus1=p3.1.2.3 bus2=p4.1.2.3 switch=y r1=1e-4 r0=1e-4 x1=0 x0=0 c1=0 c0=0 // CIM LoadBreakSwitch
~ normamps=400.00
  close Line.1_sw 1
new Line.28_sw phases=3 bus1=s158.1.2.3 bus2=s36.1.2.3 switch=y r1=1e-4 r0=1e-4 x1=0 x0=0 c1=0 c0=0 // CIM LoadBreakSwitch
~ normamps=400.00
  close Line.28_sw 1
new Line.49_sw phases=3 bus1=s188.1.2.3 bus2=s111.1.2.3 switch=y r1=1e-4 r0=1e-4 x1=0 x0=0 c1=0 c0=0 // CIM LoadBreakSwitch
~ normamps=400.00
  close Line.49_sw 1
new Line.53_sw phases=3 bus1=s179.1.2.3 bus2=s126.1.2.3 switch=y r1=1e-4 r0=1e-4 x1=0 x0=0 c1=0 c0=0 // CIM LoadBreakSwitch
~ normamps=400.00
  close Line.53_sw 1
new Line.74_sw phases=3 bus1=s228.1.2.3 bus2=s225.1.2.3 switch=y r1=1e-4 r0=1e-4 x1=0 x0=0 c1=0 c0=0 // CIM LoadBreakSwitch
~ normamps=400.00
  close Line.74_sw 1
new Line.80_sw phases=3 bus1=s240.1.2.3 bus2=s239.1.2.3 switch=y r1=1e-4 r0=1e-4 x1=0 x0=0 c1=0 c0=0 // CIM LoadBreakSwitch
~ normamps=400.00
  close Line.80_sw 1
new Line.36_sw phases=3 bus1=s173.1.2.3 bus2=s60.1.2.3 switch=y r1=1e-4 r0=1e-4 x1=0 x0=0 c1=0 c0=0 // CIM LoadBreakSwitch
~ normamps=400.00
  close Line.36_sw 1
new Line.11_sw phases=3 bus1=p117.1.2.3 bus2=p118.1.2.3 switch=y r1=1e-4 r0=1e-4 x1=0 x0=0 c1=0 c0=0 // CIM LoadBreakSwitch
~ normamps=400.00
  close Line.11_sw 1
new Line.18_sw phases=3 bus1=s153.1.2.3 bus2=s14.1.2.3 switch=y r1=1e-4 r0=1e-4 x1=0 x0=0 c1=0 c0=0 // CIM LoadBreakSwitch
~ normamps=400.00
  close Line.18_sw 1
new Line.42_sw phases=3 bus1=s170.1.2.3 bus2=s76.1.2.3 switch=y r1=1e-4 r0=1e-4 x1=0 x0=0 c1=0 c0=0 // CIM LoadBreakSwitch
~ normamps=400.00
  close Line.42_sw 1
new Line.67_sw phases=3 bus1=s209.1.2.3 bus2=s206.1.2.3 switch=y r1=1e-4 r0=1e-4 x1=0 x0=0 c1=0 c0=0 // CIM LoadBreakSwitch
~ normamps=400.00
  close Line.67_sw 1
new Line.9_sw phases=3 bus1=p81.1.2.3 bus2=p82.1.2.3 switch=y r1=1e-4 r0=1e-4 x1=0 x0=0 c1=0 c0=0 // CIM LoadBreakSwitch
~ normamps=400.00
  close Line.9_sw 1
new Line.39_sw phases=3 bus1=s167.1.2.3 bus2=s90.1.2.3 switch=y r1=1e-4 r0=1e-4 x1=0 x0=0 c1=0 c0=0 // CIM LoadBreakSwitch
~ normamps=400.00
  close Line.39_sw 1
new Line.46_sw phases=3 bus1=s177.1.2.3 bus2=s86.1.2.3 switch=y r1=1e-4 r0=1e-4 x1=0 x0=0 c1=0 c0=0 // CIM LoadBreakSwitch
~ normamps=400.00
  close Line.46_sw 1
new Line.5_sw phases=3 bus1=p11.1.2.3 bus2=p12.1.2.3 switch=y r1=1e-4 r0=1e-4 x1=0 x0=0 c1=0 c0=0 // CIM LoadBreakSwitch
~ normamps=400.00
  close Line.5_sw 1
new Line.63_sw phases=3 bus1=s201.1.2.3 bus2=s199.1.2.3 switch=y r1=1e-4 r0=1e-4 x1=0 x0=0 c1=0 c0=0 // CIM LoadBreakSwitch
~ normamps=400.00
  close Line.63_sw 1
new Line.73_sw phases=3 bus1=s223.1.2.3 bus2=s220.1.2.3 switch=y r1=1e-4 r0=1e-4 x1=0 x0=0 c1=0 c0=0 // CIM LoadBreakSwitch
~ normamps=400.00
  close Line.73_sw 1
new Line.25_sw phases=3 bus1=s155.1.2.3 bus2=s54.1.2.3 switch=y r1=1e-4 r0=1e-4 x1=0 x0=0 c1=0 c0=0 // CIM LoadBreakSwitch
~ normamps=400.00
  close Line.25_sw 1
new Line.21_sw phases=3 bus1=s147.1.2.3 bus2=s44.1.2.3 switch=y r1=1e-4 r0=1e-4 x1=0 x0=0 c1=0 c0=0 // CIM LoadBreakSwitch
~ normamps=400.00
  close Line.21_sw 1
new Line.79_sw phases=3 bus1=s238.1.2.3 bus2=s237.1.2.3 switch=y r1=1e-4 r0=1e-4 x1=0 x0=0 c1=0 c0=0 // CIM LoadBreakSwitch
~ normamps=400.00
  close Line.79_sw 1
new Line.33_sw phases=3 bus1=s172.1.2.3 bus2=s70.1.2.3 switch=y r1=1e-4 r0=1e-4 x1=0 x0=0 c1=0 c0=0 // CIM LoadBreakSwitch
~ normamps=400.00
  close Line.33_sw 1
new Line.27_sw phases=3 bus1=s159.1.2.3 bus2=s59.1.2.3 switch=y r1=1e-4 r0=1e-4 x1=0 x0=0 c1=0 c0=0 // CIM LoadBreakSwitch
~ normamps=400.00
  close Line.27_sw 1
new Line.52_sw phases=3 bus1=s189.1.2.3 bus2=s101.1.2.3 switch=y r1=1e-4 r0=1e-4 x1=0 x0=0 c1=0 c0=0 // CIM LoadBreakSwitch
~ normamps=400.00
  close Line.52_sw 1
new Line.75_sw phases=3 bus1=s229.1.2.3 bus2=s226.1.2.3 switch=y r1=1e-4 r0=1e-4 x1=0 x0=0 c1=0 c0=0 // CIM LoadBreakSwitch
~ normamps=400.00
  close Line.75_sw 1
new Line.56_sw phases=3 bus1=s182.1.2.3 bus2=s116.1.2.3 switch=y r1=1e-4 r0=1e-4 x1=0 x0=0 c1=0 c0=0 // CIM LoadBreakSwitch
~ normamps=400.00
  close Line.56_sw 1
new Line.14_sw phases=3 bus1=s145.1.2.3 bus2=s4.1.2.3 switch=y r1=1e-4 r0=1e-4 x1=0 x0=0 c1=0 c0=0 // CIM LoadBreakSwitch
~ normamps=400.00
  close Line.14_sw 1
new Line.10_sw phases=3 bus1=p97.1.2.3 bus2=p98.1.2.3 switch=y r1=1e-4 r0=1e-4 x1=0 x0=0 c1=0 c0=0 // CIM LoadBreakSwitch
~ normamps=400.00
  close Line.10_sw 1
new Line.17_sw phases=3 bus1=s156.1.2.3 bus2=s29.1.2.3 switch=y r1=1e-4 r0=1e-4 x1=0 x0=0 c1=0 c0=0 // CIM LoadBreakSwitch
~ normamps=400.00
  close Line.17_sw 1
new Line.43_sw phases=3 bus1=s175.1.2.3 bus2=s100.1.2.3 switch=y r1=1e-4 r0=1e-4 x1=0 x0=0 c1=0 c0=0 // CIM LoadBreakSwitch
~ normamps=400.00
  close Line.43_sw 1
new Line.66_sw phases=3 bus1=s208.1.2.3 bus2=s205.1.2.3 switch=y r1=1e-4 r0=1e-4 x1=0 x0=0 c1=0 c0=0 // CIM LoadBreakSwitch
~ normamps=400.00
  close Line.66_sw 1
new Line.8_sw phases=3 bus1=p62.1.2.3 bus2=p63.1.2.3 switch=y r1=1e-4 r0=1e-4 x1=0 x0=0 c1=0 c0=0 // CIM LoadBreakSwitch
~ normamps=400.00
  close Line.8_sw 1
new Line.20_sw phases=3 bus1=s157.1.2.3 bus2=s19.1.2.3 switch=y r1=1e-4 r0=1e-4 x1=0 x0=0 c1=0 c0=0 // CIM LoadBreakSwitch
~ normamps=400.00
  close Line.20_sw 1
new Line.4_sw phases=3 bus1=p9.1.2.3 bus2=p10.1.2.3 switch=y r1=1e-4 r0=1e-4 x1=0 x0=0 c1=0 c0=0 // CIM LoadBreakSwitch
~ normamps=400.00
  close Line.4_sw 1
new Line.62_sw phases=3 bus1=s197.1.2.3 bus2=s195.1.2.3 switch=y r1=1e-4 r0=1e-4 x1=0 x0=0 c1=0 c0=0 // CIM LoadBreakSwitch
~ normamps=400.00
  close Line.62_sw 1
new Line.47_sw phases=3 bus1=s184.1.2.3 bus2=s110.1.2.3 switch=y r1=1e-4 r0=1e-4 x1=0 x0=0 c1=0 c0=0 // CIM LoadBreakSwitch
~ normamps=400.00
  close Line.47_sw 1
new Line.72_sw phases=3 bus1=s222.1.2.3 bus2=s219.1.2.3 switch=y r1=1e-4 r0=1e-4 x1=0 x0=0 c1=0 c0=0 // CIM LoadBreakSwitch
~ normamps=400.00
  close Line.72_sw 1
new Line.24_sw phases=3 bus1=s150.1.2.3 bus2=s34.1.2.3 switch=y r1=1e-4 r0=1e-4 x1=0 x0=0 c1=0 c0=0 // CIM LoadBreakSwitch
~ normamps=400.00
  close Line.24_sw 1
new Line.59_sw phases=3 bus1=s191.1.2.3 bus2=s141.1.2.3 switch=y r1=1e-4 r0=1e-4 x1=0 x0=0 c1=0 c0=0 // CIM LoadBreakSwitch
~ normamps=400.00
  close Line.59_sw 1
new Line.30_sw phases=3 bus1=s161.1.2.3 bus2=s45.1.2.3 switch=y r1=1e-4 r0=1e-4 x1=0 x0=0 c1=0 c0=0 // CIM LoadBreakSwitch
~ normamps=400.00
  close Line.30_sw 1
new Line.26_sw phases=3 bus1=s154.1.2.3 bus2=s35.1.2.3 switch=y r1=1e-4 r0=1e-4 x1=0 x0=0 c1=0 c0=0 // CIM LoadBreakSwitch
~ normamps=400.00
  close Line.26_sw 1
new Line.34_sw phases=3 bus1=s169.1.2.3 bus2=s55.1.2.3 switch=y r1=1e-4 r0=1e-4 x1=0 x0=0 c1=0 c0=0 // CIM LoadBreakSwitch
~ normamps=400.00
  close Line.34_sw 1
new Line.51_sw phases=3 bus1=s192.1.2.3 bus2=s112.1.2.3 switch=y r1=1e-4 r0=1e-4 x1=0 x0=0 c1=0 c0=0 // CIM LoadBreakSwitch
~ normamps=400.00
  close Line.51_sw 1
new Line.76_sw phases=3 bus1=s230.1.2.3 bus2=s227.1.2.3 switch=y r1=1e-4 r0=1e-4 x1=0 x0=0 c1=0 c0=0 // CIM LoadBreakSwitch
~ normamps=400.00
  close Line.76_sw 1
new Line.55_sw phases=3 bus1=s183.1.2.3 bus2=s131.1.2.3 switch=y r1=1e-4 r0=1e-4 x1=0 x0=0 c1=0 c0=0 // CIM LoadBreakSwitch
~ normamps=400.00
  close Line.55_sw 1
new Line.3_sw phases=3 bus1=p7.1.2.3 bus2=p8.1.2.3 switch=y r1=1e-4 r0=1e-4 x1=0 x0=0 c1=0 c0=0 // CIM LoadBreakSwitch
~ normamps=400.00
  close Line.3_sw 1
new Line.13_sw phases=3 bus1=s148.1.2.3 bus2=s27.1.2.3 switch=y r1=1e-4 r0=1e-4 x1=0 x0=0 c1=0 c0=0 // CIM LoadBreakSwitch
~ normamps=400.00
  close Line.13_sw 1
new Line.16_sw phases=3 bus1=s149.1.2.3 bus2=s9.1.2.3 switch=y r1=1e-4 r0=1e-4 x1=0 x0=0 c1=0 c0=0 // CIM LoadBreakSwitch
~ normamps=400.00
  close Line.16_sw 1
new Line.40_sw phases=3 bus1=s166.1.2.3 bus2=s75.1.2.3 switch=y r1=1e-4 r0=1e-4 x1=0 x0=0 c1=0 c0=0 // CIM LoadBreakSwitch
~ normamps=400.00
  close Line.40_sw 1
new Line.69_sw phases=3 bus1=s215.1.2.3 bus2=s212.1.2.3 switch=y r1=1e-4 r0=1e-4 x1=0 x0=0 c1=0 c0=0 // CIM LoadBreakSwitch
~ normamps=400.00
  close Line.69_sw 1
new Line.37_sw phases=3 bus1=s163.1.2.3 bus2=s85.1.2.3 switch=y r1=1e-4 r0=1e-4 x1=0 x0=0 c1=0 c0=0 // CIM LoadBreakSwitch
~ normamps=400.00
  close Line.37_sw 1
new Line.44_sw phases=3 bus1=s174.1.2.3 bus2=s77.1.2.3 switch=y r1=1e-4 r0=1e-4 x1=0 x0=0 c1=0 c0=0 // CIM LoadBreakSwitch
~ normamps=400.00
  close Line.44_sw 1
new Line.65_sw phases=3 bus1=s207.1.2.3 bus2=s204.1.2.3 switch=y r1=1e-4 r0=1e-4 x1=0 x0=0 c1=0 c0=0 // CIM LoadBreakSwitch
~ normamps=400.00
  close Line.65_sw 1
new Line.7_sw phases=3 bus1=p45.1.2.3 bus2=p46.1.2.3 switch=y r1=1e-4 r0=1e-4 x1=0 x0=0 c1=0 c0=0 // CIM LoadBreakSwitch
~ normamps=400.00
  close Line.7_sw 1
new Line.71_sw phases=3 bus1=s221.1.2.3 bus2=s218.1.2.3 switch=y r1=1e-4 r0=1e-4 x1=0 x0=0 c1=0 c0=0 // CIM LoadBreakSwitch
~ normamps=400.00
  close Line.71_sw 1
new Line.61_sw phases=3 bus1=s196.1.2.3 bus2=s194.1.2.3 switch=y r1=1e-4 r0=1e-4 x1=0 x0=0 c1=0 c0=0 // CIM LoadBreakSwitch
~ normamps=400.00
  close Line.61_sw 1
new Line.23_sw phases=3 bus1=s151.1.2.3 bus2=s49.1.2.3 switch=y r1=1e-4 r0=1e-4 x1=0 x0=0 c1=0 c0=0 // CIM LoadBreakSwitch
~ normamps=400.00
  close Line.23_sw 1

new Line.230 phases=3 bus1=s138.1.2.3 bus2=s139.1.2.3 length=100.000 linecode=sec6 units=ft
~ normamps=400.00 emergamps=600.00
new Line.110 phases=3 bus1=p121.1.2.3 bus2=p123.1.2.3 length=100.000 linecode=pri1 units=ft
~ normamps=400.00 emergamps=600.00
new Line.231 phases=3 bus1=s139.1.2.3 bus2=s140.1.2.3 length=100.000 linecode=sec6 units=ft
~ normamps=400.00 emergamps=600.00
new Line.111 phases=3 bus1=p123.1.2.3 bus2=p124.1.2.3 length=100.000 linecode=pri1 units=ft
~ normamps=400.00 emergamps=600.00
new Line.232 phases=3 bus1=s140.1.2.3 bus2=s141.1.2.3 length=100.000 linecode=sec6 units=ft
~ normamps=400.00 emergamps=600.00
new Line.112 phases=3 bus1=p123.1.2.3 bus2=p125.1.2.3 length=100.000 linecode=pri1 units=ft
~ normamps=400.00 emergamps=600.00
new Line.233 phases=3 bus1=s141.1.2.3 bus2=s142.1.2.3 length=25.000 linecode=sec6 units=ft
~ normamps=400.00 emergamps=600.00
new Line.113 phases=3 bus1=p125.1.2.3 bus2=p126.1.2.3 length=100.000 linecode=pri1 units=ft
~ normamps=400.00 emergamps=600.00
new Line.234 phases=3 bus1=s142.1.2.3 bus2=s143.1.2.3 length=25.000 linecode=sec6 units=ft
~ normamps=400.00 emergamps=600.00
new Line.114 phases=3 bus1=p125.1.2.3 bus2=p127.1.2.3 length=100.000 linecode=pri1 units=ft
~ normamps=400.00 emergamps=600.00
new Line.235 phases=3 bus1=s143.1.2.3 bus2=s144.1.2.3 length=100.000 linecode=sec6 units=ft
~ normamps=400.00 emergamps=600.00
new Line.115 phases=3 bus1=p127.1.2.3 bus2=p128.1.2.3 length=100.000 linecode=pri1 units=ft
~ normamps=400.00 emergamps=600.00
new Line.236 phases=3 bus1=s1.1.2.3 bus2=s22.1.2.3 length=100.000 linecode=sec6 units=ft
~ normamps=400.00 emergamps=600.00
new Line.116 phases=3 bus1=p127.1.2.3 bus2=p129.1.2.3 length=100.000 linecode=pri1 units=ft
~ normamps=400.00 emergamps=600.00
new Line.237 phases=3 bus1=s22.1.2.3 bus2=s27.1.2.3 length=100.000 linecode=sec6 units=ft
~ normamps=400.00 emergamps=600.00
new Line.117 phases=3 bus1=p129.1.2.3 bus2=p130.1.2.3 length=100.000 linecode=pri1 units=ft
~ normamps=400.00 emergamps=600.00
new Line.238 phases=3 bus1=s27.1.2.3 bus2=s32.1.2.3 length=25.000 linecode=sec6 units=ft
~ normamps=400.00 emergamps=600.00
new Line.118 phases=3 bus1=p130.1.2.3 bus2=p131.1.2.3 length=100.000 linecode=pri1 units=ft
~ normamps=400.00 emergamps=600.00
new Line.239 phases=3 bus1=s32.1.2.3 bus2=s37.1.2.3 length=25.000 linecode=sec6 units=ft
~ normamps=400.00 emergamps=600.00
new Line.119 phases=3 bus1=p129.1.2.3 bus2=p132.1.2.3 length=100.000 linecode=pri1 units=ft
~ normamps=400.00 emergamps=600.00
new Line.10 phases=3 bus1=p10.1.2.3 bus2=p97.1.2.3 length=50.000 linecode=pri1 units=ft
~ normamps=400.00 emergamps=600.00
new Line.11 phases=3 bus1=p10.1.2.3 bus2=p116.1.2.3 length=25.000 linecode=pri1 units=ft
~ normamps=400.00 emergamps=600.00
new Line.12 phases=3 bus1=p116.1.2.3 bus2=p117.1.2.3 length=25.000 linecode=pri1 units=ft
~ normamps=400.00 emergamps=600.00
new Line.13 phases=3 bus1=p116.1.2.3 bus2=p134.1.2.3 length=25.000 linecode=pri1 units=ft
~ normamps=400.00 emergamps=600.00
new Line.14 phases=3 bus1=p12.1.2.3 bus2=p13.1.2.3 length=2500.000 linecode=pri1 units=ft
~ normamps=400.00 emergamps=600.00
new Line.15 phases=3 bus1=p13.1.2.3 bus2=p14.1.2.3 length=100.000 linecode=pri1 units=ft
~ normamps=400.00 emergamps=600.00
new Line.16 phases=3 bus1=p13.1.2.3 bus2=p15.1.2.3 length=100.000 linecode=pri1 units=ft
~ normamps=400.00 emergamps=600.00
new Line.17 phases=3 bus1=p15.1.2.3 bus2=p16.1.2.3 length=100.000 linecode=pri1 units=ft
~ normamps=400.00 emergamps=600.00
new Line.18 phases=3 bus1=p16.1.2.3 bus2=p17.1.2.3 length=100.000 linecode=pri1 units=ft
~ normamps=400.00 emergamps=600.00
new Line.19 phases=3 bus1=p15.1.2.3 bus2=p18.1.2.3 length=100.000 linecode=pri1 units=ft
~ normamps=400.00 emergamps=600.00
new Line.240 phases=3 bus1=s37.1.2.3 bus2=s42.1.2.3 length=100.000 linecode=sec6 units=ft
~ normamps=400.00 emergamps=600.00
new Line.120 phases=3 bus1=p132.1.2.3 bus2=p133.1.2.3 length=100.000 linecode=pri1 units=ft
~ normamps=400.00 emergamps=600.00
new Line.241 phases=3 bus1=s42.1.2.3 bus2=s63.1.2.3 length=100.000 linecode=sec6 units=ft
~ normamps=400.00 emergamps=600.00
new Line.121 phases=3 bus1=p135.1.2.3 bus2=p136.1.2.3 length=2500.000 linecode=pri1 units=ft
~ normamps=400.00 emergamps=600.00
new Line.242 phases=3 bus1=s63.1.2.3 bus2=s68.1.2.3 length=100.000 linecode=sec6 units=ft
~ normamps=400.00 emergamps=600.00
new Line.1 phases=3 bus1=p1.1.2.3 bus2=p2.1.2.3 length=150.000 linecode=trans1 units=ft
~ normamps=400.00 emergamps=600.00
new Line.122 phases=3 bus1=p136.1.2.3 bus2=p137.1.2.3 length=100.000 linecode=pri1 units=ft
~ normamps=400.00 emergamps=600.00
new Line.243 phases=3 bus1=s68.1.2.3 bus2=s73.1.2.3 length=25.000 linecode=sec6 units=ft
~ normamps=400.00 emergamps=600.00
new Line.123 phases=3 bus1=p136.1.2.3 bus2=p138.1.2.3 length=100.000 linecode=pri1 units=ft
~ normamps=400.00 emergamps=600.00
new Line.2 phases=3 bus1=p2.1.2.3 bus2=p3.1.2.3 length=150.000 linecode=trans1 units=ft
~ normamps=400.00 emergamps=600.00
new Line.244 phases=3 bus1=s73.1.2.3 bus2=s78.1.2.3 length=25.000 linecode=sec6 units=ft
~ normamps=400.00 emergamps=600.00
new Line.124 phases=3 bus1=p138.1.2.3 bus2=p139.1.2.3 length=100.000 linecode=pri1 units=ft
~ normamps=400.00 emergamps=600.00
new Line.245 phases=3 bus1=s78.1.2.3 bus2=s83.1.2.3 length=100.000 linecode=sec6 units=ft
~ normamps=400.00 emergamps=600.00
new Line.3 phases=3 bus1=p2.1.2.3 bus2=p7.1.2.3 length=150.000 linecode=trans1 units=ft
~ normamps=400.00 emergamps=600.00
new Line.125 phases=3 bus1=p139.1.2.3 bus2=p140.1.2.3 length=100.000 linecode=pri1 units=ft
~ normamps=400.00 emergamps=600.00
new Line.246 phases=3 bus1=s83.1.2.3 bus2=s104.1.2.3 length=100.000 linecode=sec6 units=ft
~ normamps=400.00 emergamps=600.00
new Line.4 phases=3 bus1=p6.1.2.3 bus2=p11.1.2.3 length=50.000 linecode=pri1 units=ft
~ normamps=400.00 emergamps=600.00
new Line.126 phases=3 bus1=p138.1.2.3 bus2=p141.1.2.3 length=100.000 linecode=pri1 units=ft
~ normamps=400.00 emergamps=600.00
new Line.247 phases=3 bus1=s104.1.2.3 bus2=s109.1.2.3 length=100.000 linecode=sec6 units=ft
~ normamps=400.00 emergamps=600.00
new Line.5 phases=3 bus1=p6.1.2.3 bus2=p27.1.2.3 length=50.000 linecode=pri1 units=ft
~ normamps=400.00 emergamps=600.00
new Line.127 phases=3 bus1=p141.1.2.3 bus2=p142.1.2.3 length=100.000 linecode=pri1 units=ft
~ normamps=400.00 emergamps=600.00
new Line.248 phases=3 bus1=s109.1.2.3 bus2=s114.1.2.3 length=25.000 linecode=sec6 units=ft
~ normamps=400.00 emergamps=600.00
new Line.6 phases=3 bus1=p6.1.2.3 bus2=p44.1.2.3 length=25.000 linecode=pri1 units=ft
~ normamps=400.00 emergamps=600.00
new Line.128 phases=3 bus1=p141.1.2.3 bus2=p143.1.2.3 length=100.000 linecode=pri1 units=ft
~ normamps=400.00 emergamps=600.00
new Line.249 phases=3 bus1=s114.1.2.3 bus2=s119.1.2.3 length=25.000 linecode=sec6 units=ft
~ normamps=400.00 emergamps=600.00
new Line.7 phases=3 bus1=p44.1.2.3 bus2=p45.1.2.3 length=25.000 linecode=pri1 units=ft
~ normamps=400.00 emergamps=600.00
new Line.129 phases=3 bus1=p143.1.2.3 bus2=p144.1.2.3 length=100.000 linecode=pri1 units=ft
~ normamps=400.00 emergamps=600.00
new Line.8 phases=3 bus1=p44.1.2.3 bus2=p62.1.2.3 length=25.000 linecode=pri1 units=ft
~ normamps=400.00 emergamps=600.00
new Line.9 phases=3 bus1=p10.1.2.3 bus2=p81.1.2.3 length=50.000 linecode=pri1 units=ft
~ normamps=400.00 emergamps=600.00
new Line.20 phases=3 bus1=p18.1.2.3 bus2=p19.1.2.3 length=100.000 linecode=pri1 units=ft
~ normamps=400.00 emergamps=600.00
new Line.21 phases=3 bus1=p18.1.2.3 bus2=p20.1.2.3 length=100.000 linecode=pri1 units=ft
~ normamps=400.00 emergamps=600.00
new Line.22 phases=3 bus1=p20.1.2.3 bus2=p21.1.2.3 length=100.000 linecode=pri1 units=ft
~ normamps=400.00 emergamps=600.00
new Line.23 phases=3 bus1=p21.1.2.3 bus2=p22.1.2.3 length=100.000 linecode=pri1 units=ft
~ normamps=400.00 emergamps=600.00
new Line.24 phases=3 bus1=p20.1.2.3 bus2=p23.1.2.3 length=100.000 linecode=pri1 units=ft
~ normamps=400.00 emergamps=600.00
new Line.25 phases=3 bus1=p23.1.2.3 bus2=p24.1.2.3 length=100.000 linecode=pri1 units=ft
~ normamps=400.00 emergamps=600.00
new Line.26 phases=3 bus1=p23.1.2.3 bus2=p25.1.2.3 length=100.000 linecode=pri1 units=ft
~ normamps=400.00 emergamps=600.00
new Line.27 phases=3 bus1=p25.1.2.3 bus2=p26.1.2.3 length=100.000 linecode=pri1 units=ft
~ normamps=400.00 emergamps=600.00
new Line.28 phases=3 bus1=p28.1.2.3 bus2=p29.1.2.3 length=2500.000 linecode=pri1 units=ft
~ normamps=400.00 emergamps=600.00
new Line.29 phases=3 bus1=p29.1.2.3 bus2=p30.1.2.3 length=100.000 linecode=pri1 units=ft
~ normamps=400.00 emergamps=600.00
new Line.250 phases=3 bus1=s119.1.2.3 bus2=s124.1.2.3 length=100.000 linecode=sec6 units=ft
~ normamps=400.00 emergamps=600.00
new Line.130 phases=3 bus1=p144.1.2.3 bus2=p145.1.2.3 length=100.000 linecode=pri1 units=ft
~ normamps=400.00 emergamps=600.00
new Line.251 phases=3 bus1=s6.1.2.3 bus2=s23.1.2.3 length=100.000 linecode=sec6 units=ft
~ normamps=400.00 emergamps=600.00
new Line.131 phases=3 bus1=p145.1.2.3 bus2=p146.1.2.3 length=100.000 linecode=pri1 units=ft
~ normamps=400.00 emergamps=600.00
new Line.252 phases=3 bus1=s23.1.2.3 bus2=s28.1.2.3 length=25.000 linecode=sec6 units=ft
~ normamps=400.00 emergamps=600.00
new Line.132 phases=3 bus1=p143.1.2.3 bus2=p147.1.2.3 length=100.000 linecode=pri1 units=ft
~ normamps=400.00 emergamps=600.00
new Line.253 phases=3 bus1=s28.1.2.3 bus2=s33.1.2.3 length=100.000 linecode=sec6 units=ft
~ normamps=400.00 emergamps=600.00
new Line.133 phases=3 bus1=p147.1.2.3 bus2=p148.1.2.3 length=100.000 linecode=pri1 units=ft
~ normamps=400.00 emergamps=600.00
new Line.254 phases=3 bus1=s33.1.2.3 bus2=s38.1.2.3 length=25.000 linecode=sec6 units=ft
~ normamps=400.00 emergamps=600.00
new Line.134 phases=3 bus1=p147.1.2.3 bus2=p149.1.2.3 length=100.000 linecode=pri1 units=ft
~ normamps=400.00 emergamps=600.00
new Line.255 phases=3 bus1=s38.1.2.3 bus2=s47.1.2.3 length=100.000 linecode=sec6 units=ft
~ normamps=400.00 emergamps=600.00
new Line.135 phases=3 bus1=p149.1.2.3 bus2=p150.1.2.3 length=100.000 linecode=pri1 units=ft
~ normamps=400.00 emergamps=600.00
new Line.256 phases=3 bus1=s47.1.2.3 bus2=s64.1.2.3 length=100.000 linecode=sec6 units=ft
~ normamps=400.00 emergamps=600.00
new Line.136 phases=3 bus1=s194.1.2.3 bus2=s193.1.2.3 length=10.000 linecode=sec5 units=ft
~ normamps=400.00 emergamps=600.00
new Line.257 phases=3 bus1=s64.1.2.3 bus2=s69.1.2.3 length=25.000 linecode=sec6 units=ft
~ normamps=400.00 emergamps=600.00
new Line.137 phases=3 bus1=s195.1.2.3 bus2=s193.1.2.3 length=10.000 linecode=sec5 units=ft
~ normamps=400.00 emergamps=600.00
new Line.258 phases=3 bus1=s69.1.2.3 bus2=s74.1.2.3 length=100.000 linecode=sec6 units=ft
~ normamps=400.00 emergamps=600.00
new Line.138 phases=3 bus1=s199.1.2.3 bus2=s198.1.2.3 length=10.000 linecode=sec5 units=ft
~ normamps=400.00 emergamps=600.00
new Line.259 phases=3 bus1=s74.1.2.3 bus2=s79.1.2.3 length=25.000 linecode=sec6 units=ft
~ normamps=400.00 emergamps=600.00
new Line.139 phases=3 bus1=s200.1.2.3 bus2=s198.1.2.3 length=10.000 linecode=sec5 units=ft
~ normamps=400.00 emergamps=600.00
new Line.30 phases=3 bus1=p29.1.2.3 bus2=p31.1.2.3 length=100.000 linecode=pri1 units=ft
~ normamps=400.00 emergamps=600.00
new Line.31 phases=3 bus1=p31.1.2.3 bus2=p32.1.2.3 length=100.000 linecode=pri1 units=ft
~ normamps=400.00 emergamps=600.00
new Line.32 phases=3 bus1=p31.1.2.3 bus2=p33.1.2.3 length=100.000 linecode=pri1 units=ft
~ normamps=400.00 emergamps=600.00
new Line.33 phases=3 bus1=p33.1.2.3 bus2=p34.1.2.3 length=100.000 linecode=pri1 units=ft
~ normamps=400.00 emergamps=600.00
new Line.34 phases=3 bus1=p33.1.2.3 bus2=p35.1.2.3 length=100.000 linecode=pri1 units=ft
~ normamps=400.00 emergamps=600.00
new Line.35 phases=3 bus1=p35.1.2.3 bus2=p36.1.2.3 length=100.000 linecode=pri1 units=ft
~ normamps=400.00 emergamps=600.00
new Line.36 phases=3 bus1=p35.1.2.3 bus2=p37.1.2.3 length=100.000 linecode=pri1 units=ft
~ normamps=400.00 emergamps=600.00
new Line.37 phases=3 bus1=p37.1.2.3 bus2=p38.1.2.3 length=100.000 linecode=pri1 units=ft
~ normamps=400.00 emergamps=600.00
new Line.38 phases=3 bus1=p37.1.2.3 bus2=p39.1.2.3 length=100.000 linecode=pri1 units=ft
~ normamps=400.00 emergamps=600.00
new Line.39 phases=3 bus1=p39.1.2.3 bus2=p40.1.2.3 length=100.000 linecode=pri1 units=ft
~ normamps=400.00 emergamps=600.00
new Line.260 phases=3 bus1=s79.1.2.3 bus2=s88.1.2.3 length=100.000 linecode=sec6 units=ft
~ normamps=400.00 emergamps=600.00
new Line.140 phases=3 bus1=s204.1.2.3 bus2=s203.1.2.3 length=10.000 linecode=sec5 units=ft
~ normamps=400.00 emergamps=600.00
new Line.261 phases=3 bus1=s88.1.2.3 bus2=s105.1.2.3 length=100.000 linecode=sec6 units=ft
~ normamps=400.00 emergamps=600.00
new Line.141 phases=3 bus1=s205.1.2.3 bus2=s203.1.2.3 length=10.000 linecode=sec5 units=ft
~ normamps=400.00 emergamps=600.00
new Line.262 phases=3 bus1=s105.1.2.3 bus2=s110.1.2.3 length=25.000 linecode=sec6 units=ft
~ normamps=400.00 emergamps=600.00
new Line.142 phases=3 bus1=s206.1.2.3 bus2=s203.1.2.3 length=10.000 linecode=sec5 units=ft
~ normamps=400.00 emergamps=600.00
new Line.263 phases=3 bus1=s110.1.2.3 bus2=s115.1.2.3 length=100.000 linecode=sec6 units=ft
~ normamps=400.00 emergamps=600.00
new Line.143 phases=3 bus1=s211.1.2.3 bus2=s210.1.2.3 length=10.000 linecode=sec5 units=ft
~ normamps=400.00 emergamps=600.00
new Line.264 phases=3 bus1=s115.1.2.3 bus2=s120.1.2.3 length=25.000 linecode=sec6 units=ft
~ normamps=400.00 emergamps=600.00
new Line.144 phases=3 bus1=s212.1.2.3 bus2=s210.1.2.3 length=10.000 linecode=sec5 units=ft
~ normamps=400.00 emergamps=600.00
new Line.265 phases=3 bus1=s120.1.2.3 bus2=s129.1.2.3 length=100.000 linecode=sec6 units=ft
~ normamps=400.00 emergamps=600.00
new Line.145 phases=3 bus1=s213.1.2.3 bus2=s210.1.2.3 length=10.000 linecode=sec5 units=ft
~ normamps=400.00 emergamps=600.00
new Line.266 phases=3 bus1=s11.1.2.3 bus2=s24.1.2.3 length=100.000 linecode=sec6 units=ft
~ normamps=400.00 emergamps=600.00
new Line.146 phases=3 bus1=s218.1.2.3 bus2=s217.1.2.3 length=10.000 linecode=sec5 units=ft
~ normamps=400.00 emergamps=600.00
new Line.267 phases=3 bus1=s24.1.2.3 bus2=s29.1.2.3 length=25.000 linecode=sec6 units=ft
~ normamps=400.00 emergamps=600.00
new Line.147 phases=3 bus1=s219.1.2.3 bus2=s217.1.2.3 length=10.000 linecode=sec5 units=ft
~ normamps=400.00 emergamps=600.00
new Line.268 phases=3 bus1=s29.1.2.3 bus2=s34.1.2.3 length=100.000 linecode=sec6 units=ft
~ normamps=400.00 emergamps=600.00
new Line.148 phases=3 bus1=s220.1.2.3 bus2=s217.1.2.3 length=10.000 linecode=sec5 units=ft
~ normamps=400.00 emergamps=600.00
new Line.269 phases=3 bus1=s34.1.2.3 bus2=s39.1.2.3 length=25.000 linecode=sec6 units=ft
~ normamps=400.00 emergamps=600.00
new Line.149 phases=3 bus1=s225.1.2.3 bus2=s224.1.2.3 length=10.000 linecode=sec5 units=ft
~ normamps=400.00 emergamps=600.00
new Line.40 phases=3 bus1=p40.1.2.3 bus2=p41.1.2.3 length=100.000 linecode=pri1 units=ft
~ normamps=400.00 emergamps=600.00
new Line.41 phases=3 bus1=p39.1.2.3 bus2=p42.1.2.3 length=100.000 linecode=pri1 units=ft
~ normamps=400.00 emergamps=600.00
new Line.42 phases=3 bus1=p42.1.2.3 bus2=p43.1.2.3 length=100.000 linecode=pri1 units=ft
~ normamps=400.00 emergamps=600.00
new Line.43 phases=3 bus1=p46.1.2.3 bus2=p47.1.2.3 length=2500.000 linecode=pri1 units=ft
~ normamps=400.00 emergamps=600.00
new Line.44 phases=3 bus1=p47.1.2.3 bus2=p48.1.2.3 length=100.000 linecode=pri1 units=ft
~ normamps=400.00 emergamps=600.00
new Line.45 phases=3 bus1=p47.1.2.3 bus2=p49.1.2.3 length=100.000 linecode=pri1 units=ft
~ normamps=400.00 emergamps=600.00
new Line.46 phases=3 bus1=p49.1.2.3 bus2=p50.1.2.3 length=100.000 linecode=pri1 units=ft
~ normamps=400.00 emergamps=600.00
new Line.47 phases=3 bus1=p49.1.2.3 bus2=p51.1.2.3 length=100.000 linecode=pri1 units=ft
~ normamps=400.00 emergamps=600.00
new Line.48 phases=3 bus1=p51.1.2.3 bus2=p52.1.2.3 length=100.000 linecode=pri1 units=ft
~ normamps=400.00 emergamps=600.00
new Line.49 phases=3 bus1=p51.1.2.3 bus2=p53.1.2.3 length=100.000 linecode=pri1 units=ft
~ normamps=400.00 emergamps=600.00
new Line.270 phases=3 bus1=s39.1.2.3 bus2=s52.1.2.3 length=100.000 linecode=sec6 units=ft
~ normamps=400.00 emergamps=600.00
new Line.150 phases=3 bus1=s226.1.2.3 bus2=s224.1.2.3 length=10.000 linecode=sec5 units=ft
~ normamps=400.00 emergamps=600.00
new Line.271 phases=3 bus1=s52.1.2.3 bus2=s65.1.2.3 length=100.000 linecode=sec6 units=ft
~ normamps=400.00 emergamps=600.00
new Line.151 phases=3 bus1=s227.1.2.3 bus2=s224.1.2.3 length=10.000 linecode=sec5 units=ft
~ normamps=400.00 emergamps=600.00
new Line.272 phases=3 bus1=s65.1.2.3 bus2=s70.1.2.3 length=25.000 linecode=sec6 units=ft
~ normamps=400.00 emergamps=600.00
new Line.152 phases=3 bus1=s232.1.2.3 bus2=s231.1.2.3 length=10.000 linecode=sec5 units=ft
~ normamps=400.00 emergamps=600.00
new Line.273 phases=3 bus1=s70.1.2.3 bus2=s75.1.2.3 length=100.000 linecode=sec6 units=ft
~ normamps=400.00 emergamps=600.00
new Line.153 phases=3 bus1=s233.1.2.3 bus2=s231.1.2.3 length=10.000 linecode=sec5 units=ft
~ normamps=400.00 emergamps=600.00
new Line.274 phases=3 bus1=s75.1.2.3 bus2=s80.1.2.3 length=25.000 linecode=sec6 units=ft
~ normamps=400.00 emergamps=600.00
new Line.154 phases=3 bus1=s237.1.2.3 bus2=s236.1.2.3 length=10.000 linecode=sec5 units=ft
~ normamps=400.00 emergamps=600.00
new Line.275 phases=3 bus1=s80.1.2.3 bus2=s93.1.2.3 length=100.000 linecode=sec6 units=ft
~ normamps=400.00 emergamps=600.00
new Line.155 phases=3 bus1=s239.1.2.3 bus2=s236.1.2.3 length=10.000 linecode=sec5 units=ft
~ normamps=400.00 emergamps=600.00
new Line.276 phases=3 bus1=s93.1.2.3 bus2=s106.1.2.3 length=100.000 linecode=sec6 units=ft
~ normamps=400.00 emergamps=600.00
new Line.156 phases=3 bus1=s1.1.2.3 bus2=s2.1.2.3 length=100.000 linecode=sec6 units=ft
~ normamps=400.00 emergamps=600.00
new Line.277 phases=3 bus1=s106.1.2.3 bus2=s111.1.2.3 length=25.000 linecode=sec6 units=ft
~ normamps=400.00 emergamps=600.00
new Line.157 phases=3 bus1=s2.1.2.3 bus2=s3.1.2.3 length=25.000 linecode=sec6 units=ft
~ normamps=400.00 emergamps=600.00
new Line.278 phases=3 bus1=s111.1.2.3 bus2=s116.1.2.3 length=100.000 linecode=sec6 units=ft
~ normamps=400.00 emergamps=600.00
new Line.158 phases=3 bus1=s3.1.2.3 bus2=s4.1.2.3 length=25.000 linecode=sec6 units=ft
~ normamps=400.00 emergamps=600.00
new Line.279 phases=3 bus1=s116.1.2.3 bus2=s121.1.2.3 length=25.000 linecode=sec6 units=ft
~ normamps=400.00 emergamps=600.00
new Line.159 phases=3 bus1=s4.1.2.3 bus2=s5.1.2.3 length=100.000 linecode=sec6 units=ft
~ normamps=400.00 emergamps=600.00
new Line.50 phases=3 bus1=p53.1.2.3 bus2=p54.1.2.3 length=100.000 linecode=pri1 units=ft
~ normamps=400.00 emergamps=600.00
new Line.51 phases=3 bus1=p54.1.2.3 bus2=p55.1.2.3 length=100.000 linecode=pri1 units=ft
~ normamps=400.00 emergamps=600.00
new Line.52 phases=3 bus1=p55.1.2.3 bus2=p56.1.2.3 length=100.000 linecode=pri1 units=ft
~ normamps=400.00 emergamps=600.00
new Line.53 phases=3 bus1=p53.1.2.3 bus2=p57.1.2.3 length=100.000 linecode=pri1 units=ft
~ normamps=400.00 emergamps=600.00
new Line.54 phases=3 bus1=p57.1.2.3 bus2=p58.1.2.3 length=100.000 linecode=pri1 units=ft
~ normamps=400.00 emergamps=600.00
new Line.55 phases=3 bus1=p57.1.2.3 bus2=p59.1.2.3 length=100.000 linecode=pri1 units=ft
~ normamps=400.00 emergamps=600.00
new Line.56 phases=3 bus1=p59.1.2.3 bus2=p60.1.2.3 length=100.000 linecode=pri1 units=ft
~ normamps=400.00 emergamps=600.00
new Line.57 phases=3 bus1=p60.1.2.3 bus2=p61.1.2.3 length=100.000 linecode=pri1 units=ft
~ normamps=400.00 emergamps=600.00
new Line.58 phases=3 bus1=p63.1.2.3 bus2=p64.1.2.3 length=2500.000 linecode=pri1 units=ft
~ normamps=400.00 emergamps=600.00
new Line.59 phases=3 bus1=p64.1.2.3 bus2=p65.1.2.3 length=100.000 linecode=pri1 units=ft
~ normamps=400.00 emergamps=600.00
new Line.280 phases=3 bus1=s121.1.2.3 bus2=s134.1.2.3 length=100.000 linecode=sec6 units=ft
~ normamps=400.00 emergamps=600.00
new Line.160 phases=3 bus1=s5.1.2.3 bus2=s6.1.2.3 length=100.000 linecode=sec6 units=ft
~ normamps=400.00 emergamps=600.00
new Line.281 phases=3 bus1=s16.1.2.3 bus2=s25.1.2.3 length=100.000 linecode=sec6 units=ft
~ normamps=400.00 emergamps=600.00
new Line.161 phases=3 bus1=s6.1.2.3 bus2=s7.1.2.3 length=100.000 linecode=sec6 units=ft
~ normamps=400.00 emergamps=600.00
new Line.282 phases=3 bus1=s25.1.2.3 bus2=s30.1.2.3 length=25.000 linecode=sec6 units=ft
~ normamps=400.00 emergamps=600.00
new Line.162 phases=3 bus1=s7.1.2.3 bus2=s8.1.2.3 length=25.000 linecode=sec6 units=ft
~ normamps=400.00 emergamps=600.00
new Line.283 phases=3 bus1=s30.1.2.3 bus2=s35.1.2.3 length=100.000 linecode=sec6 units=ft
~ normamps=400.00 emergamps=600.00
new Line.163 phases=3 bus1=s8.1.2.3 bus2=s9.1.2.3 length=25.000 linecode=sec6 units=ft
~ normamps=400.00 emergamps=600.00
new Line.284 phases=3 bus1=s35.1.2.3 bus2=s40.1.2.3 length=25.000 linecode=sec6 units=ft
~ normamps=400.00 emergamps=600.00
new Line.164 phases=3 bus1=s9.1.2.3 bus2=s10.1.2.3 length=100.000 linecode=sec6 units=ft
~ normamps=400.00 emergamps=600.00
new Line.285 phases=3 bus1=s40.1.2.3 bus2=s57.1.2.3 length=100.000 linecode=sec6 units=ft
~ normamps=400.00 emergamps=600.00
new Line.165 phases=3 bus1=s10.1.2.3 bus2=s11.1.2.3 length=100.000 linecode=sec6 units=ft
~ normamps=400.00 emergamps=600.00
new Line.286 phases=3 bus1=s57.1.2.3 bus2=s66.1.2.3 length=100.000 linecode=sec6 units=ft
~ normamps=400.00 emergamps=600.00
new Line.166 phases=3 bus1=s11.1.2.3 bus2=s12.1.2.3 length=100.000 linecode=sec6 units=ft
~ normamps=400.00 emergamps=600.00
new Line.287 phases=3 bus1=s66.1.2.3 bus2=s71.1.2.3 length=25.000 linecode=sec6 units=ft
~ normamps=400.00 emergamps=600.00
new Line.167 phases=3 bus1=s12.1.2.3 bus2=s13.1.2.3 length=25.000 linecode=sec6 units=ft
~ normamps=400.00 emergamps=600.00
new Line.288 phases=3 bus1=s71.1.2.3 bus2=s76.1.2.3 length=100.000 linecode=sec6 units=ft
~ normamps=400.00 emergamps=600.00
new Line.168 phases=3 bus1=s13.1.2.3 bus2=s14.1.2.3 length=25.000 linecode=sec6 units=ft
~ normamps=400.00 emergamps=600.00
new Line.289 phases=3 bus1=s76.1.2.3 bus2=s81.1.2.3 length=25.000 linecode=sec6 units=ft
~ normamps=400.00 emergamps=600.00
new Line.169 phases=3 bus1=s14.1.2.3 bus2=s15.1.2.3 length=100.000 linecode=sec6 units=ft
~ normamps=400.00 emergamps=600.00
new Line.60 phases=3 bus1=p64.1.2.3 bus2=p66.1.2.3 length=100.000 linecode=pri1 units=ft
~ normamps=400.00 emergamps=600.00
new Line.61 phases=3 bus1=p66.1.2.3 bus2=p67.1.2.3 length=100.000 linecode=pri1 units=ft
~ normamps=400.00 emergamps=600.00
new Line.62 phases=3 bus1=p66.1.2.3 bus2=p68.1.2.3 length=100.000 linecode=pri1 units=ft
~ normamps=400.00 emergamps=600.00
new Line.63 phases=3 bus1=p68.1.2.3 bus2=p69.1.2.3 length=100.000 linecode=pri1 units=ft
~ normamps=400.00 emergamps=600.00
new Line.64 phases=3 bus1=p68.1.2.3 bus2=p70.1.2.3 length=100.000 linecode=pri1 units=ft
~ normamps=400.00 emergamps=600.00
new Line.65 phases=3 bus1=p70.1.2.3 bus2=p71.1.2.3 length=100.000 linecode=pri1 units=ft
~ normamps=400.00 emergamps=600.00
new Line.66 phases=3 bus1=p70.1.2.3 bus2=p72.1.2.3 length=100.000 linecode=pri1 units=ft
~ normamps=400.00 emergamps=600.00
new Line.67 phases=3 bus1=p72.1.2.3 bus2=p73.1.2.3 length=100.000 linecode=pri1 units=ft
~ normamps=400.00 emergamps=600.00
new Line.68 phases=3 bus1=p73.1.2.3 bus2=p74.1.2.3 length=100.000 linecode=pri1 units=ft
~ normamps=400.00 emergamps=600.00
new Line.69 phases=3 bus1=p72.1.2.3 bus2=p75.1.2.3 length=100.000 linecode=pri1 units=ft
~ normamps=400.00 emergamps=600.00
new Line.290 phases=3 bus1=s81.1.2.3 bus2=s98.1.2.3 length=100.000 linecode=sec6 units=ft
~ normamps=400.00 emergamps=600.00
new Line.170 phases=3 bus1=s15.1.2.3 bus2=s16.1.2.3 length=100.000 linecode=sec6 units=ft
~ normamps=400.00 emergamps=600.00
new Line.291 phases=3 bus1=s98.1.2.3 bus2=s107.1.2.3 length=100.000 linecode=sec6 units=ft
~ normamps=400.00 emergamps=600.00
new Line.171 phases=3 bus1=s16.1.2.3 bus2=s17.1.2.3 length=100.000 linecode=sec6 units=ft
~ normamps=400.00 emergamps=600.00
new Line.292 phases=3 bus1=s107.1.2.3 bus2=s112.1.2.3 length=25.000 linecode=sec6 units=ft
~ normamps=400.00 emergamps=600.00
new Line.172 phases=3 bus1=s17.1.2.3 bus2=s18.1.2.3 length=25.000 linecode=sec6 units=ft
~ normamps=400.00 emergamps=600.00
new Line.293 phases=3 bus1=s112.1.2.3 bus2=s117.1.2.3 length=100.000 linecode=sec6 units=ft
~ normamps=400.00 emergamps=600.00
new Line.173 phases=3 bus1=s18.1.2.3 bus2=s19.1.2.3 length=25.000 linecode=sec6 units=ft
~ normamps=400.00 emergamps=600.00
new Line.294 phases=3 bus1=s117.1.2.3 bus2=s122.1.2.3 length=25.000 linecode=sec6 units=ft
~ normamps=400.00 emergamps=600.00
new Line.174 phases=3 bus1=s19.1.2.3 bus2=s20.1.2.3 length=100.000 linecode=sec6 units=ft
~ normamps=400.00 emergamps=600.00
new Line.295 phases=3 bus1=s122.1.2.3 bus2=s139.1.2.3 length=100.000 linecode=sec6 units=ft
~ normamps=400.00 emergamps=600.00
new Line.175 phases=3 bus1=s20.1.2.3 bus2=s21.1.2.3 length=100.000 linecode=sec6 units=ft
~ normamps=400.00 emergamps=600.00
new Line.296 phases=3 bus1=s21.1.2.3 bus2=s26.1.2.3 length=100.000 linecode=sec6 units=ft
~ normamps=400.00 emergamps=600.00
new Line.176 phases=3 bus1=s42.1.2.3 bus2=s43.1.2.3 length=100.000 linecode=sec6 units=ft
~ normamps=400.00 emergamps=600.00
new Line.297 phases=3 bus1=s26.1.2.3 bus2=s31.1.2.3 length=25.000 linecode=sec6 units=ft
~ normamps=400.00 emergamps=600.00
new Line.177 phases=3 bus1=s43.1.2.3 bus2=s44.1.2.3 length=25.000 linecode=sec6 units=ft
~ normamps=400.00 emergamps=600.00
new Line.298 phases=3 bus1=s31.1.2.3 bus2=s36.1.2.3 length=25.000 linecode=sec6 units=ft
~ normamps=400.00 emergamps=600.00
new Line.178 phases=3 bus1=s44.1.2.3 bus2=s45.1.2.3 length=100.000 linecode=sec6 units=ft
~ normamps=400.00 emergamps=600.00
new Line.299 phases=3 bus1=s36.1.2.3 bus2=s41.1.2.3 length=100.000 linecode=sec6 units=ft
~ normamps=400.00 emergamps=600.00
new Line.179 phases=3 bus1=s45.1.2.3 bus2=s46.1.2.3 length=25.000 linecode=sec6 units=ft
~ normamps=400.00 emergamps=600.00
new Line.70 phases=3 bus1=p75.1.2.3 bus2=p76.1.2.3 length=100.000 linecode=pri1 units=ft
~ normamps=400.00 emergamps=600.00
new Line.71 phases=3 bus1=p75.1.2.3 bus2=p77.1.2.3 length=100.000 linecode=pri1 units=ft
~ normamps=400.00 emergamps=600.00
new Line.72 phases=3 bus1=p77.1.2.3 bus2=p78.1.2.3 length=100.000 linecode=pri1 units=ft
~ normamps=400.00 emergamps=600.00
new Line.73 phases=3 bus1=p77.1.2.3 bus2=p79.1.2.3 length=100.000 linecode=pri1 units=ft
~ normamps=400.00 emergamps=600.00
new Line.74 phases=3 bus1=p79.1.2.3 bus2=p80.1.2.3 length=100.000 linecode=pri1 units=ft
~ normamps=400.00 emergamps=600.00
new Line.75 phases=3 bus1=p82.1.2.3 bus2=p83.1.2.3 length=2500.000 linecode=pri1 units=ft
~ normamps=400.00 emergamps=600.00
new Line.76 phases=3 bus1=p83.1.2.3 bus2=p84.1.2.3 length=100.000 linecode=pri1 units=ft
~ normamps=400.00 emergamps=600.00
new Line.77 phases=3 bus1=p83.1.2.3 bus2=p85.1.2.3 length=100.000 linecode=pri1 units=ft
~ normamps=400.00 emergamps=600.00
new Line.78 phases=3 bus1=p85.1.2.3 bus2=p86.1.2.3 length=100.000 linecode=pri1 units=ft
~ normamps=400.00 emergamps=600.00
new Line.79 phases=3 bus1=p86.1.2.3 bus2=p87.1.2.3 length=100.000 linecode=pri1 units=ft
~ normamps=400.00 emergamps=600.00
new Line.180 phases=3 bus1=s46.1.2.3 bus2=s47.1.2.3 length=100.000 linecode=sec6 units=ft
~ normamps=400.00 emergamps=600.00
new Line.181 phases=3 bus1=s47.1.2.3 bus2=s48.1.2.3 length=100.000 linecode=sec6 units=ft
~ normamps=400.00 emergamps=600.00
new Line.182 phases=3 bus1=s48.1.2.3 bus2=s49.1.2.3 length=25.000 linecode=sec6 units=ft
~ normamps=400.00 emergamps=600.00
...